/*--------------------------------*- C++ -*----------------------------------*\
| =========                 |                                                 |
| \\      /  F ield         | OpenFOAM: The Open Source CFD Toolbox           |
|  \\    /   O peration     | Version:  2.4.0                                 |
|   \\  /    A nd           | Web:      www.OpenFOAM.org                      |
|    \\/     M anipulation  |                                                 |
\*---------------------------------------------------------------------------*/
FoamFile
{
    version     2.0;
    format      ascii;
    class       dictionary;
    object      decomposeParDict;
}

// * * * * * * * * * * * * * * * * * * * * * * * * * * * * * * * * * * * * * //

// method          scotch;

numberOfSubdomains 8;

method          simple;

simpleCoeffs
{
 n         (8 1 1);
 delta      0.001;
}

//mpirun -n 4 simpleFoam -parallel > log &
// /home/cfx/residuos.sh

// ************************************************************************* //
